16

 C                 -0.01841800   -1.20828600   -0.00204700
 C                 -0.70561500    0.00000000   -0.00138200
 C                 -0.01841700    1.20828600   -0.00205000
 C                  1.35266300    1.20917400   -0.00310700
 C                  2.06955800    0.00000000   -0.00283500
 C                  1.35266200   -1.20917400   -0.00310400
 H                 -0.56818800   -2.13694000   -0.00068300
 H                 -0.56818700    2.13694100   -0.00068800
 H                  1.89196300    2.14697600   -0.00431500
 H                  1.89196300   -2.14697500   -0.00430900
 N                 -2.14276800    0.00000000    0.00163200
 O                 -2.72903600    1.07261300    0.00291700
 O                 -2.72903500   -1.07261400    0.00290900
 N                  3.42281700    0.00000000   -0.02607100
 H                  3.93103600    0.85578700    0.11081000
 H                  3.93103500   -0.85578800    0.11080700
