16

 C                  0.01990500    1.20629600   -0.00239100
 C                  0.70312600    0.00000100   -0.00145600
 C                  0.01990700   -1.20629400   -0.00239700
 C                 -1.35399200   -1.20608000   -0.00414000
 C                 -2.06766200   -0.00000100   -0.00441900
 C                 -1.35399300    1.20607900   -0.00413300
 H                  0.57421100    2.13237600   -0.00078500
 H                  0.57421400   -2.13237400   -0.00079500
 H                 -1.89288200   -2.14452600   -0.00711200
 H                 -1.89288600    2.14452400   -0.00709800
 N                  2.15169100    0.00000000    0.00226900
 O                  2.72777600   -1.07335600    0.00385100
 O                  2.72777800    1.07335500    0.00383400
 N                 -3.43191300    0.00000000   -0.04027200
 H                 -3.92464200   -0.85074400    0.16697400
 H                 -3.92463900    0.85074400    0.16697900
