16

 C                 -0.01838500   -1.20832800   -0.00204000
 C                 -0.70567500    0.00000000   -0.00137800
 C                 -0.01838400    1.20832800   -0.00204300
 C                  1.35263100    1.20924200   -0.00308200
 C                  2.06959800    0.00000000   -0.00278700
 C                  1.35263000   -1.20924200   -0.00307800
 H                 -0.56808200   -2.13702400   -0.00069700
 H                 -0.56808100    2.13702500   -0.00070300
 H                  1.89194400    2.14702900   -0.00426800
 H                  1.89194300   -2.14702900   -0.00426000
 N                 -2.14258300    0.00000000    0.00161400
 O                 -2.72905200    1.07260900    0.00289200
 O                 -2.72905000   -1.07260900    0.00288300
 N                  3.42260800    0.00000000   -0.02559100
 H                  3.93121200    0.85591200    0.10900700
 H                  3.93121100   -0.85591300    0.10900500
